<?xml version="1.0" encoding="UTF-8"?>

<!-- generated on 2023-01-02 15:34:15 by Eclipse SUMO netedit Version v1_15_0+1033-5ab1db048c1
-->

<additional xmlns:xsi="http://www.w3.org/2001/XMLSchema-instance" xsi:noNamespaceSchemaLocation="http://sumo.dlr.de/xsd/additional_file.xsd">
    <!-- Detectors -->
    <inductionLoop id="e1Detector_-1102_0" name="-1102_0" lane="-1102_0" pos="-20.00" freq="900.00" file="out.xml"/>
    <inductionLoop id="e1Detector_-1104_0" name="-1104_0" lane="-1104_0" pos="-20.00" freq="900.00" file="out.xml"/>
    <inductionLoop id="e1Detector_-1112_0" name="-1112_0" lane="-1112_0" pos="-20.00" freq="900.00" file="out.xml"/>
    <inductionLoop id="e1Detector_-1126_0" name="-1126_0" lane="-1126_0" pos="-20.00" freq="900.00" file="out.xml"/>
    <inductionLoop id="e1Detector_-1128_0" name="-1128_0" lane="-1128_0" pos="-20.00" freq="900.00" file="out.xml"/>
    <inductionLoop id="e1Detector_-1162_0" name="-1162_0" lane="-1162_0" pos="-20.00" freq="900.00" file="out.xml"/>
    <inductionLoop id="e1Detector_-11_0" name="-11_0" lane="-11_0" pos="-20.00" freq="900.00" file="out.xml"/>
    <inductionLoop id="e1Detector_-1275_0" name="-1275_0" lane="-1275_0" pos="-20.00" freq="900.00" file="out.xml"/>
    <inductionLoop id="e1Detector_-1276_0" name="-1276_0" lane="-1276_0" pos="-20.00" freq="900.00" file="out.xml"/>
    <inductionLoop id="e1Detector_-1278_0" name="-1278_0" lane="-1278_0" pos="-20.00" freq="900.00" file="out.xml"/>
    <inductionLoop id="e1Detector_-1286_0" name="-1286_0" lane="-1286_0" pos="-20.00" freq="900.00" file="out.xml"/>
    <inductionLoop id="e1Detector_-1354_0" name="-1354_0" lane="-1354_0" pos="-20.00" freq="900.00" file="out.xml"/>
    <inductionLoop id="e1Detector_-1356_0" name="-1356_0" lane="-1356_0" pos="-20.00" freq="900.00" file="out.xml"/>
    <inductionLoop id="e1Detector_-1356_1" name="-1356_1" lane="-1356_1" pos="-20.00" freq="900.00" file="out.xml"/>
    <inductionLoop id="e1Detector_-1358_0" name="-1358_0" lane="-1358_0" pos="-20.00" freq="900.00" file="out.xml"/>
    <inductionLoop id="e1Detector_-1358_1" name="-1358_1" lane="-1358_1" pos="-20.00" freq="900.00" file="out.xml"/>
    <inductionLoop id="e1Detector_-1376_0" name="-1376_0" lane="-1376.338_0" pos="-20.00" freq="900.00" file="out.xml"/>
    <inductionLoop id="e1Detector_-1376_1" name="-1376_1" lane="-1376.338_1" pos="-20.00" freq="900.00" file="out.xml"/>
    <inductionLoop id="e1Detector_-1378_0" name="-1378_0" lane="-1378_0" pos="-20.00" freq="900.00" file="out.xml"/>
    <inductionLoop id="e1Detector_-1378_1" name="-1378_1" lane="-1378_1" pos="-20.00" freq="900.00" file="out.xml"/>
    <inductionLoop id="e1Detector_-1380_0" name="-1380_0" lane="-1380_0" pos="-20.00" freq="900.00" file="out.xml"/>
    <inductionLoop id="e1Detector_-1382_0" name="-1382_0" lane="-1382_0" pos="-20.00" freq="900.00" file="out.xml"/>
    <inductionLoop id="e1Detector_-1392_0" name="-1392_0" lane="-1392_0" pos="-20.00" freq="900.00" file="out.xml"/>
    <inductionLoop id="e1Detector_-1392_1" name="-1392_1" lane="-1392_1" pos="-20.00" freq="900.00" file="out.xml"/>
    <inductionLoop id="e1Detector_-1396_0" name="-1396_0" lane="-1396_0" pos="-20.00" freq="900.00" file="out.xml"/>
    <inductionLoop id="e1Detector_-1400_0" name="-1400_0" lane="-1400_0" pos="-20.00" freq="900.00" file="out.xml"/>
    <inductionLoop id="e1Detector_-1432_0" name="-1432_0" lane="-1432.706_0" pos="-20.00" freq="900.00" file="out.xml"/>
    <inductionLoop id="e1Detector_-1432_1" name="-1432_1" lane="-1432.706_1" pos="-20.00" freq="900.00" file="out.xml"/>
    <inductionLoop id="e1Detector_-1432_2" name="-1432_2" lane="-1432.706_2" pos="-20.00" freq="900.00" file="out.xml"/>
    <inductionLoop id="e1Detector_-1442_0" name="-1442_0" lane="-1442_0" pos="-20.00" freq="900.00" file="out.xml"/>
    <inductionLoop id="e1Detector_-1446_0" name="-1446_0" lane="-1446_0" pos="-20.00" freq="900.00" file="out.xml"/>
    <inductionLoop id="e1Detector_-1448_0" name="-1448_0" lane="-1448_0" pos="-20.00" freq="900.00" file="out.xml"/>
    <inductionLoop id="e1Detector_-1454_0" name="-1454_0" lane="-1454_0" pos="-20.00" freq="900.00" file="out.xml"/>
    <inductionLoop id="e1Detector_-148_0" name="-148_0" lane="-148_0" pos="-20.00" freq="900.00" file="out.xml"/>
    <inductionLoop id="e1Detector_-1563_0" name="-1563_0" lane="-1563_0" pos="-20.00" freq="900.00" file="out.xml"/>
    <inductionLoop id="e1Detector_-1565_0" name="-1565_0" lane="-1565_0" pos="-20.00" freq="900.00" file="out.xml"/>
    <inductionLoop id="e1Detector_-1569_0" name="-1569_0" lane="-1569_0" pos="-20.00" freq="900.00" file="out.xml"/>
    <inductionLoop id="e1Detector_-1577_0" name="-1577_0" lane="-1577_0" pos="-20.00" freq="900.00" file="out.xml"/>
    <inductionLoop id="e1Detector_-1579_0" name="-1579_0" lane="-1579_0" pos="-20.00" freq="900.00" file="out.xml"/>
    <inductionLoop id="e1Detector_-1589_0" name="-1589_0" lane="-1589_0" pos="-20.00" freq="900.00" file="out.xml"/>
    <inductionLoop id="e1Detector_-1591_0" name="-1591_0" lane="-1591_0" pos="-20.00" freq="900.00" file="out.xml"/>
    <inductionLoop id="e1Detector_-15_0" name="-15_0" lane="-15_0" pos="-20.00" freq="900.00" file="out.xml"/>
    <inductionLoop id="e1Detector_-1699_0" name="-1699_0" lane="-1699_0" pos="-20.00" freq="900.00" file="out.xml"/>
    <inductionLoop id="e1Detector_-1708_0" name="-1708_0" lane="-1708_0" pos="-20.00" freq="900.00" file="out.xml"/>
    <inductionLoop id="e1Detector_-1815_0" name="-1815_0" lane="-1815_0" pos="-20.00" freq="900.00" file="out.xml"/>
    <inductionLoop id="e1Detector_-1833_0" name="-1833_0" lane="-1833_0" pos="-20.00" freq="900.00" file="out.xml"/>
    <inductionLoop id="e1Detector_-1859_0" name="-1859_0" lane="-1859_0" pos="-20.00" freq="900.00" file="out.xml"/>
    <inductionLoop id="e1Detector_-1967_0" name="-1967_0" lane="-1967_0" pos="-20.00" freq="900.00" file="out.xml"/>
    <inductionLoop id="e1Detector_-1971_0" name="-1971_0" lane="-1971_0" pos="-20.00" freq="900.00" file="out.xml"/>
    <inductionLoop id="e1Detector_-2029_0" name="-2029_0" lane="-2029_0" pos="-20.00" freq="900.00" file="out.xml"/>
    <inductionLoop id="e1Detector_-20_0" name="-20_0" lane="-20_0" pos="-20.00" freq="900.00" file="out.xml"/>
    <inductionLoop id="e1Detector_-2237_0" name="-2237_0" lane="-2237_0" pos="-20.00" freq="900.00" file="out.xml"/>
    <inductionLoop id="e1Detector_-2243_0" name="-2243_0" lane="-2243_0" pos="-20.00" freq="900.00" file="out.xml"/>
    <inductionLoop id="e1Detector_-2248_0" name="-2248_0" lane="-2248_0" pos="-20.00" freq="900.00" file="out.xml"/>
    <inductionLoop id="e1Detector_-2256_0" name="-2256_0" lane="-2256.352_0" pos="-20.00" freq="900.00" file="out.xml"/>
    <inductionLoop id="e1Detector_-2256_1" name="-2256_1" lane="-2256.352_1" pos="-20.00" freq="900.00" file="out.xml"/>
    <inductionLoop id="e1Detector_-2256_2" name="-2256_2" lane="-2256.352_2" pos="-20.00" freq="900.00" file="out.xml"/>
    <inductionLoop id="e1Detector_-22_0" name="-22_0" lane="-22_0" pos="-20.00" freq="900.00" file="out.xml"/>
    <inductionLoop id="e1Detector_-2338_0" name="-2338_0" lane="-2338_0" pos="-20.00" freq="900.00" file="out.xml"/>
    <inductionLoop id="e1Detector_-2443_0" name="-2443_0" lane="-2443_0" pos="-20.00" freq="900.00" file="out.xml"/>
    <inductionLoop id="e1Detector_-2451_0" name="-2451_0" lane="-2451_0" pos="-20.00" freq="900.00" file="out.xml"/>
    <inductionLoop id="e1Detector_-2471_0" name="-2471_0" lane="-2471_0" pos="-20.00" freq="900.00" file="out.xml"/>
    <inductionLoop id="e1Detector_-2487_0" name="-2487_0" lane="-2487_0" pos="-20.00" freq="900.00" file="out.xml"/>
    <inductionLoop id="e1Detector_-2491_0" name="-2491_0" lane="-2491_0" pos="-20.00" freq="900.00" file="out.xml"/>
    <inductionLoop id="e1Detector_-2499_0" name="-2499_0" lane="-2499_0" pos="-20.00" freq="900.00" file="out.xml"/>
    <inductionLoop id="e1Detector_-2503_0" name="-2503_0" lane="-2503_0" pos="-20.00" freq="900.00" file="out.xml"/>
    <inductionLoop id="e1Detector_-2523_0" name="-2523_0" lane="-2523_0" pos="-20.00" freq="900.00" file="out.xml"/>
    <inductionLoop id="e1Detector_-2538_0" name="-2538_0" lane="-2538_0" pos="-20.00" freq="900.00" file="out.xml"/>
    <inductionLoop id="e1Detector_-2542_0" name="-2542_0" lane="-2542_0" pos="-20.00" freq="900.00" file="out.xml"/>
    <inductionLoop id="e1Detector_-2546_0" name="-2546_0" lane="-2546_0" pos="-20.00" freq="900.00" file="out.xml"/>
    <inductionLoop id="e1Detector_-2562_0" name="-2562_0" lane="-2562_0" pos="-20.00" freq="900.00" file="out.xml"/>
    <inductionLoop id="e1Detector_-2577_0" name="-2577_0" lane="-2577_0" pos="-20.00" freq="900.00" file="out.xml"/>
    <inductionLoop id="e1Detector_-2582_0" name="-2582_0" lane="-2582_0" pos="-20.00" freq="900.00" file="out.xml"/>
    <inductionLoop id="e1Detector_-2588_0" name="-2588_0" lane="-2588_0" pos="-20.00" freq="900.00" file="out.xml"/>
    <inductionLoop id="e1Detector_-2619_0" name="-2619_0" lane="-2619_0" pos="-20.00" freq="900.00" file="out.xml"/>
    <inductionLoop id="e1Detector_-2623_0" name="-2623_0" lane="-2623_0" pos="-20.00" freq="900.00" file="out.xml"/>
    <inductionLoop id="e1Detector_-2628_0" name="-2628_0" lane="-2628_0" pos="-20.00" freq="900.00" file="out.xml"/>
    <inductionLoop id="e1Detector_-2634_0" name="-2634_0" lane="-2634_0" pos="-20.00" freq="900.00" file="out.xml"/>
    <inductionLoop id="e1Detector_-2636_0" name="-2636_0" lane="-2636_0" pos="-20.00" freq="900.00" file="out.xml"/>
    <inductionLoop id="e1Detector_-2646_0" name="-2646_0" lane="-2646_0" pos="-20.00" freq="900.00" file="out.xml"/>
    <inductionLoop id="e1Detector_-2693_0" name="-2693_0" lane="-2693_0" pos="-20.00" freq="900.00" file="out.xml"/>
    <inductionLoop id="e1Detector_-2696_0" name="-2696_0" lane="-2696_0" pos="-20.00" freq="900.00" file="out.xml"/>
    <inductionLoop id="e1Detector_-2704_0" name="-2704_0" lane="-2704_0" pos="-20.00" freq="900.00" file="out.xml"/>
    <inductionLoop id="e1Detector_-2707_0" name="-2707_0" lane="-2707_0" pos="-20.00" freq="900.00" file="out.xml"/>
    <inductionLoop id="e1Detector_-2711_0" name="-2711_0" lane="-2711_0" pos="-20.00" freq="900.00" file="out.xml"/>
    <inductionLoop id="e1Detector_-2719_0" name="-2719_0" lane="-2719_0" pos="-20.00" freq="900.00" file="out.xml"/>
    <inductionLoop id="e1Detector_-2723_0" name="-2723_0" lane="-2723_0" pos="-20.00" freq="900.00" file="out.xml"/>
    <inductionLoop id="e1Detector_-27_0" name="-27_0" lane="-27_0" pos="-20.00" freq="900.00" file="out.xml"/>
    <inductionLoop id="e1Detector_-2832_0" name="-2832_0" lane="-2832_0" pos="-20.00" freq="900.00" file="out.xml"/>
    <inductionLoop id="e1Detector_-2836_0" name="-2836_0" lane="-2836_0" pos="-20.00" freq="900.00" file="out.xml"/>
    <inductionLoop id="e1Detector_-2847_0" name="-2847_0" lane="-2847_0" pos="-20.00" freq="900.00" file="out.xml"/>
    <inductionLoop id="e1Detector_-2858_0" name="-2858_0" lane="-2858_0" pos="-20.00" freq="900.00" file="out.xml"/>
    <inductionLoop id="e1Detector_-2870_0" name="-2870_0" lane="-2870_0" pos="-20.00" freq="900.00" file="out.xml"/>
    <inductionLoop id="e1Detector_-28_0" name="-28_0" lane="-28_0" pos="-20.00" freq="900.00" file="out.xml"/>
    <inductionLoop id="e1Detector_-2934_0" name="-2934_0" lane="-2934_0" pos="-20.00" freq="900.00" file="out.xml"/>
    <inductionLoop id="e1Detector_-3042_0" name="-3042_0" lane="-3042_0" pos="-20.00" freq="900.00" file="out.xml"/>
    <inductionLoop id="e1Detector_-3160_0" name="-3160_0" lane="-3160_0" pos="-20.00" freq="900.00" file="out.xml"/>
    <inductionLoop id="e1Detector_-3162_0" name="-3162_0" lane="-3162_0" pos="-20.00" freq="900.00" file="out.xml"/>
    <inductionLoop id="e1Detector_-3168_0" name="-3168_0" lane="-3168_0" pos="-20.00" freq="900.00" file="out.xml"/>
    <inductionLoop id="e1Detector_-3286_0" name="-3286_0" lane="-3286_0" pos="-20.00" freq="900.00" file="out.xml"/>
    <inductionLoop id="e1Detector_-3296_0" name="-3296_0" lane="-3296_0" pos="-20.00" freq="900.00" file="out.xml"/>
    <inductionLoop id="e1Detector_-3308_0" name="-3308_0" lane="-3308_0" pos="-20.00" freq="900.00" file="out.xml"/>
    <inductionLoop id="e1Detector_-336_0" name="-336_0" lane="-336_0" pos="-20.00" freq="900.00" file="out.xml"/>
    <inductionLoop id="e1Detector_-338_0" name="-338_0" lane="-338_0" pos="-20.00" freq="900.00" file="out.xml"/>
    <inductionLoop id="e1Detector_-3394_0" name="-3394_0" lane="-3394_0" pos="-20.00" freq="900.00" file="out.xml"/>
    <inductionLoop id="e1Detector_-3502_0" name="-3502_0" lane="-3502_0" pos="-20.00" freq="900.00" file="out.xml"/>
    <inductionLoop id="e1Detector_-3515_0" name="-3515_0" lane="-3515_0" pos="-20.00" freq="900.00" file="out.xml"/>
    <inductionLoop id="e1Detector_-3517_0" name="-3517_0" lane="-3517_0" pos="-20.00" freq="900.00" file="out.xml"/>
    <inductionLoop id="e1Detector_-3527_0" name="-3527_0" lane="-3527_0" pos="-20.00" freq="900.00" file="out.xml"/>
    <inductionLoop id="e1Detector_-3536_0" name="-3536_0" lane="-3536_0" pos="-20.00" freq="900.00" file="out.xml"/>
    <inductionLoop id="e1Detector_-3550_0" name="-3550_0" lane="-3550_0" pos="-20.00" freq="900.00" file="out.xml"/>
    <inductionLoop id="e1Detector_-3566_0" name="-3566_0" lane="-3566_0" pos="-20.00" freq="900.00" file="out.xml"/>
    <inductionLoop id="e1Detector_-360_0" name="-360_0" lane="-360_0" pos="-20.00" freq="900.00" file="out.xml"/>
    <inductionLoop id="e1Detector_-364_0" name="-364_0" lane="-364_0" pos="-20.00" freq="900.00" file="out.xml"/>
    <inductionLoop id="e1Detector_-3678_0" name="-3678_0" lane="-3678_0" pos="-20.00" freq="900.00" file="out.xml"/>
    <inductionLoop id="e1Detector_-3687_0" name="-3687_0" lane="-3687_0" pos="-20.00" freq="900.00" file="out.xml"/>
    <inductionLoop id="e1Detector_-36_0" name="-36_0" lane="-36_0" pos="-20.00" freq="900.00" file="out.xml"/>
    <inductionLoop id="e1Detector_-3705_0" name="-3705_0" lane="-3705_0" pos="-20.00" freq="900.00" file="out.xml"/>
    <inductionLoop id="e1Detector_-3709_0" name="-3709_0" lane="-3709_0" pos="-20.00" freq="900.00" file="out.xml"/>
    <inductionLoop id="e1Detector_-3715_0" name="-3715_0" lane="-3715_0" pos="-20.00" freq="900.00" file="out.xml"/>
    <inductionLoop id="e1Detector_-371_0" name="-371_0" lane="-371_0" pos="-20.00" freq="900.00" file="out.xml"/>
    <inductionLoop id="e1Detector_-3752_0" name="-3752_0" lane="-3752_0" pos="-20.00" freq="900.00" file="out.xml"/>
    <inductionLoop id="e1Detector_-375_0" name="-375_0" lane="-375_0" pos="-20.00" freq="900.00" file="out.xml"/>
    <inductionLoop id="e1Detector_-3768_0" name="-3768_0" lane="-3768_0" pos="-20.00" freq="900.00" file="out.xml"/>
    <inductionLoop id="e1Detector_-3770_0" name="-3770_0" lane="-3770_0" pos="-20.00" freq="900.00" file="out.xml"/>
    <inductionLoop id="e1Detector_-3782_0" name="-3782_0" lane="-3782_0" pos="-20.00" freq="900.00" file="out.xml"/>
    <inductionLoop id="e1Detector_-3784_0" name="-3784_0" lane="-3784_0" pos="-20.00" freq="900.00" file="out.xml"/>
    <inductionLoop id="e1Detector_-3788_0" name="-3788_0" lane="-3788_0" pos="-20.00" freq="900.00" file="out.xml"/>
    <inductionLoop id="e1Detector_-3790_0" name="-3790_0" lane="-3790_0" pos="-20.00" freq="900.00" file="out.xml"/>
    <inductionLoop id="e1Detector_-3798_0" name="-3798_0" lane="-3798_0" pos="-20.00" freq="900.00" file="out.xml"/>
    <inductionLoop id="e1Detector_-38_0" name="-38_0" lane="-38_0" pos="-20.00" freq="900.00" file="out.xml"/>
    <inductionLoop id="e1Detector_-3902_0" name="-3902_0" lane="-3902_0" pos="-20.00" freq="900.00" file="out.xml"/>
    <inductionLoop id="e1Detector_-3_0" name="-3_0" lane="-3_0" pos="-20.00" freq="900.00" file="out.xml"/>
    <inductionLoop id="e1Detector_-4129_0" name="-4129_0" lane="-4129_0" pos="-20.00" freq="900.00" file="out.xml"/>
    <inductionLoop id="e1Detector_-4133_0" name="-4133_0" lane="-4133_0" pos="-20.00" freq="900.00" file="out.xml"/>
    <inductionLoop id="e1Detector_-4144_0" name="-4144_0" lane="-4144_0" pos="-20.00" freq="900.00" file="out.xml"/>
    <inductionLoop id="e1Detector_-4269_0" name="-4269_0" lane="-4269_0" pos="-20.00" freq="900.00" file="out.xml"/>
    <inductionLoop id="e1Detector_-4271_0" name="-4271_0" lane="-4271_0" pos="-20.00" freq="900.00" file="out.xml"/>
    <inductionLoop id="e1Detector_-4273_0" name="-4273_0" lane="-4273_0" pos="-20.00" freq="900.00" file="out.xml"/>
    <inductionLoop id="e1Detector_-4379_0" name="-4379_0" lane="-4379_0" pos="-20.00" freq="900.00" file="out.xml"/>
    <inductionLoop id="e1Detector_-4383_0" name="-4383_0" lane="-4383_0" pos="-20.00" freq="900.00" file="out.xml"/>
    <inductionLoop id="e1Detector_-4489_0" name="-4489_0" lane="-4489_0" pos="-20.00" freq="900.00" file="out.xml"/>
    <inductionLoop id="e1Detector_-44_0" name="-44_0" lane="-44_0" pos="-20.00" freq="900.00" file="out.xml"/>
    <inductionLoop id="e1Detector_-4510_0" name="-4510_0" lane="-4510_0" pos="-20.00" freq="900.00" file="out.xml"/>
    <inductionLoop id="e1Detector_-4519_0" name="-4519_0" lane="-4519_0" pos="-20.00" freq="900.00" file="out.xml"/>
    <inductionLoop id="e1Detector_-4527_0" name="-4527_0" lane="-4527_0" pos="-20.00" freq="900.00" file="out.xml"/>
    <inductionLoop id="e1Detector_-4533_0" name="-4533_0" lane="-4533_0" pos="-20.00" freq="900.00" file="out.xml"/>
    <inductionLoop id="e1Detector_-4535_0" name="-4535_0" lane="-4535_0" pos="-20.00" freq="900.00" file="out.xml"/>
    <inductionLoop id="e1Detector_-4536_0" name="-4536_0" lane="-4536_0" pos="-20.00" freq="900.00" file="out.xml"/>
    <inductionLoop id="e1Detector_-4542_0" name="-4542_0" lane="-4542_0" pos="-20.00" freq="900.00" file="out.xml"/>
    <inductionLoop id="e1Detector_-4652_0" name="-4652_0" lane="-4652_0" pos="-20.00" freq="900.00" file="out.xml"/>
    <inductionLoop id="e1Detector_-4658_0" name="-4658_0" lane="-4658_0" pos="-20.00" freq="900.00" file="out.xml"/>
    <inductionLoop id="e1Detector_-4877_0" name="-4877_0" lane="-4877_0" pos="-20.00" freq="900.00" file="out.xml"/>
    <inductionLoop id="e1Detector_-4885_0" name="-4885_0" lane="-4885_0" pos="-20.00" freq="900.00" file="out.xml"/>
    <inductionLoop id="e1Detector_-4908_0" name="-4908_0" lane="-4908_0" pos="-20.00" freq="900.00" file="out.xml"/>
    <inductionLoop id="e1Detector_-4918_0" name="-4918_0" lane="-4918_0" pos="-20.00" freq="900.00" file="out.xml"/>
    <inductionLoop id="e1Detector_-4920_0" name="-4920_0" lane="-4920_0" pos="-20.00" freq="900.00" file="out.xml"/>
    <inductionLoop id="e1Detector_-4923_0" name="-4923_0" lane="-4923_0" pos="-20.00" freq="900.00" file="out.xml"/>
    <inductionLoop id="e1Detector_-4931_0" name="-4931_0" lane="-4931_0" pos="-20.00" freq="900.00" file="out.xml"/>
    <inductionLoop id="e1Detector_-4943_0" name="-4943_0" lane="-4943_0" pos="-20.00" freq="900.00" file="out.xml"/>
    <inductionLoop id="e1Detector_-4961_0" name="-4961_0" lane="-4961_0" pos="-20.00" freq="900.00" file="out.xml"/>
    <inductionLoop id="e1Detector_-4995_0" name="-4995_0" lane="-4995_0" pos="-20.00" freq="900.00" file="out.xml"/>
    <inductionLoop id="e1Detector_-5034_0" name="-5034_0" lane="-5034_0" pos="-20.00" freq="900.00" file="out.xml"/>
    <inductionLoop id="e1Detector_-5038_0" name="-5038_0" lane="-5038_0" pos="-20.00" freq="900.00" file="out.xml"/>
    <inductionLoop id="e1Detector_-5041_0" name="-5041_0" lane="-5041_0" pos="-20.00" freq="900.00" file="out.xml"/>
    <inductionLoop id="e1Detector_-5045_0" name="-5045_0" lane="-5045_0" pos="-20.00" freq="900.00" file="out.xml"/>
    <inductionLoop id="e1Detector_-5058_0" name="-5058_0" lane="-5058_0" pos="-20.00" freq="900.00" file="out.xml"/>
    <inductionLoop id="e1Detector_-5068_0" name="-5068_0" lane="-5068_0" pos="-20.00" freq="900.00" file="out.xml"/>
    <inductionLoop id="e1Detector_-5077_0" name="-5077_0" lane="-5077_0" pos="-20.00" freq="900.00" file="out.xml"/>
    <inductionLoop id="e1Detector_-5081_0" name="-5081_0" lane="-5081_0" pos="-20.00" freq="900.00" file="out.xml"/>
    <inductionLoop id="e1Detector_-5087_0" name="-5087_0" lane="-5087_0" pos="-20.00" freq="900.00" file="out.xml"/>
    <inductionLoop id="e1Detector_-5091_0" name="-5091_0" lane="-5091_0" pos="-20.00" freq="900.00" file="out.xml"/>
    <inductionLoop id="e1Detector_-5096_0" name="-5096_0" lane="-5096_0" pos="-20.00" freq="900.00" file="out.xml"/>
    <inductionLoop id="e1Detector_-5103_0" name="-5103_0" lane="-5103_0" pos="-20.00" freq="900.00" file="out.xml"/>
    <inductionLoop id="e1Detector_-5109_0" name="-5109_0" lane="-5109_0" pos="-20.00" freq="900.00" file="out.xml"/>
    <inductionLoop id="e1Detector_-514_0" name="-514_0" lane="-514_0" pos="-20.00" freq="900.00" file="out.xml"/>
    <inductionLoop id="e1Detector_-5187_0" name="-5187_0" lane="-5187_0" pos="-20.00" freq="900.00" file="out.xml"/>
    <inductionLoop id="e1Detector_-52_0" name="-52_0" lane="-52_0" pos="-20.00" freq="900.00" file="out.xml"/>
    <inductionLoop id="e1Detector_-5306_0" name="-5306_0" lane="-5306_0" pos="-20.00" freq="900.00" file="out.xml"/>
    <inductionLoop id="e1Detector_-5308_0" name="-5308_0" lane="-5308_0" pos="-20.00" freq="900.00" file="out.xml"/>
    <inductionLoop id="e1Detector_-5327_0" name="-5327_0" lane="-5327_0" pos="-20.00" freq="900.00" file="out.xml"/>
    <inductionLoop id="e1Detector_-5343_0" name="-5343_0" lane="-5343_0" pos="-20.00" freq="900.00" file="out.xml"/>
    <inductionLoop id="e1Detector_-5347_0" name="-5347_0" lane="-5347_0" pos="-20.00" freq="900.00" file="out.xml"/>
    <inductionLoop id="e1Detector_-5351_0" name="-5351_0" lane="-5351_0" pos="-20.00" freq="900.00" file="out.xml"/>
    <inductionLoop id="e1Detector_-5379_0" name="-5379_0" lane="-5379_0" pos="-20.00" freq="900.00" file="out.xml"/>
    <inductionLoop id="e1Detector_-5488_0" name="-5488_0" lane="-5488_0" pos="-20.00" freq="900.00" file="out.xml"/>
    <inductionLoop id="e1Detector_-5522_0" name="-5522_0" lane="-5522_0" pos="-20.00" freq="900.00" file="out.xml"/>
    <inductionLoop id="e1Detector_-5538_0" name="-5538_0" lane="-5538_0" pos="-20.00" freq="900.00" file="out.xml"/>
    <inductionLoop id="e1Detector_-5543_0" name="-5543_0" lane="-5543_0" pos="-20.00" freq="900.00" file="out.xml"/>
    <inductionLoop id="e1Detector_-5545_0" name="-5545_0" lane="-5545_0" pos="-20.00" freq="900.00" file="out.xml"/>
    <inductionLoop id="e1Detector_-5560_0" name="-5560_0" lane="-5560_0" pos="-20.00" freq="900.00" file="out.xml"/>
    <inductionLoop id="e1Detector_-5571_0" name="-5571_0" lane="-5571_0" pos="-20.00" freq="900.00" file="out.xml"/>
    <inductionLoop id="e1Detector_-5573_0" name="-5573_0" lane="-5573_0" pos="-20.00" freq="900.00" file="out.xml"/>
    <inductionLoop id="e1Detector_-5627_0" name="-5627_0" lane="-5627_0" pos="-20.00" freq="900.00" file="out.xml"/>
    <inductionLoop id="e1Detector_-5747_0" name="-5747_0" lane="-5747_0" pos="-20.00" freq="900.00" file="out.xml"/>
    <inductionLoop id="e1Detector_-5752_0" name="-5752_0" lane="-5752_0" pos="-20.00" freq="900.00" file="out.xml"/>
    <inductionLoop id="e1Detector_-5762_0" name="-5762_0" lane="-5762_0" pos="-20.00" freq="900.00" file="out.xml"/>
    <inductionLoop id="e1Detector_-5802_0" name="-5802_0" lane="-5802_0" pos="-20.00" freq="900.00" file="out.xml"/>
    <inductionLoop id="e1Detector_-580_0" name="-580_0" lane="-580_0" pos="-20.00" freq="900.00" file="out.xml"/>
    <inductionLoop id="e1Detector_-5810_0" name="-5810_0" lane="-5810_0" pos="-20.00" freq="900.00" file="out.xml"/>
    <inductionLoop id="e1Detector_-5823_0" name="-5823_0" lane="-5823_0" pos="-20.00" freq="900.00" file="out.xml"/>
    <inductionLoop id="e1Detector_-5860_0" name="-5860_0" lane="-5860_0" pos="-20.00" freq="900.00" file="out.xml"/>
    <inductionLoop id="e1Detector_-5863_0" name="-5863_0" lane="-5863_0" pos="-20.00" freq="900.00" file="out.xml"/>
    <inductionLoop id="e1Detector_-5868_0" name="-5868_0" lane="-5868_0" pos="-20.00" freq="900.00" file="out.xml"/>
    <inductionLoop id="e1Detector_-68_0" name="-68_0" lane="-68_0" pos="-20.00" freq="900.00" file="out.xml"/>
    <inductionLoop id="e1Detector_-700_0" name="-700_0" lane="-700_0" pos="-20.00" freq="900.00" file="out.xml"/>
    <inductionLoop id="e1Detector_-70_0" name="-70_0" lane="-70_0" pos="-20.00" freq="900.00" file="out.xml"/>
    <inductionLoop id="e1Detector_-710_0" name="-710_0" lane="-710_0" pos="-20.00" freq="900.00" file="out.xml"/>
    <inductionLoop id="e1Detector_-718_0" name="-718_0" lane="-718_0" pos="-20.00" freq="900.00" file="out.xml"/>
    <inductionLoop id="e1Detector_-726_0" name="-726_0" lane="-726_0" pos="-20.00" freq="900.00" file="out.xml"/>
    <inductionLoop id="e1Detector_-731_0" name="-731_0" lane="-731_0" pos="-20.00" freq="900.00" file="out.xml"/>
    <inductionLoop id="e1Detector_-734_0" name="-734_0" lane="-734_0" pos="-20.00" freq="900.00" file="out.xml"/>
    <inductionLoop id="e1Detector_-743_0" name="-743_0" lane="-743_0" pos="-20.00" freq="900.00" file="out.xml"/>
    <inductionLoop id="e1Detector_-746_0" name="-746_0" lane="-746_0" pos="-20.00" freq="900.00" file="out.xml"/>
    <inductionLoop id="e1Detector_-74_0" name="-74_0" lane="-74_0" pos="-20.00" freq="900.00" file="out.xml"/>
    <inductionLoop id="e1Detector_-754_0" name="-754_0" lane="-754_0" pos="-20.00" freq="900.00" file="out.xml"/>
    <inductionLoop id="e1Detector_-7_0" name="-7_0" lane="-7_0" pos="-20.00" freq="900.00" file="out.xml"/>
    <inductionLoop id="e1Detector_-859_0" name="-859_0" lane="-859_0" pos="-20.00" freq="900.00" file="out.xml"/>
    <inductionLoop id="e1Detector_-863_0" name="-863_0" lane="-863_0" pos="-20.00" freq="900.00" file="out.xml"/>
    <inductionLoop id="e1Detector_-866_0" name="-866_0" lane="-866_0" pos="-20.00" freq="900.00" file="out.xml"/>
    <inductionLoop id="e1Detector_-871_0" name="-871_0" lane="-871_0" pos="-20.00" freq="900.00" file="out.xml"/>
    <inductionLoop id="e1Detector_-876_0" name="-876_0" lane="-876_0" pos="-20.00" freq="900.00" file="out.xml"/>
    <inductionLoop id="e1Detector_-881_0" name="-881_0" lane="-881_0" pos="-20.00" freq="900.00" file="out.xml"/>
    <inductionLoop id="e1Detector_-883_0" name="-883_0" lane="-883_0" pos="-20.00" freq="900.00" file="out.xml"/>
    <inductionLoop id="e1Detector_-987_0" name="-987_0" lane="-987_0" pos="-20.00" freq="900.00" file="out.xml"/>
    <inductionLoop id="e1Detector_-991_0" name="-991_0" lane="-991_0" pos="-20.00" freq="900.00" file="out.xml"/>
    <inductionLoop id="e1Detector_-993_0" name="-993_0" lane="-993_0" pos="-20.00" freq="900.00" file="out.xml"/>
    <inductionLoop id="e1Detector_-9_0" name="-9_0" lane="-9_0" pos="-20.00" freq="900.00" file="out.xml"/>
    <inductionLoop id="e1Detector_1102_0" name="1102_0" lane="1102_0" pos="-20.00" freq="900.00" file="out.xml"/>
    <inductionLoop id="e1Detector_1104_0" name="1104_0" lane="1104_0" pos="-20.00" freq="900.00" file="out.xml"/>
    <inductionLoop id="e1Detector_1112_0" name="1112_0" lane="1112_0" pos="-20.00" freq="900.00" file="out.xml"/>
    <inductionLoop id="e1Detector_1126_0" name="1126_0" lane="1126_0" pos="-20.00" freq="900.00" file="out.xml"/>
    <inductionLoop id="e1Detector_1128_0" name="1128_0" lane="1128_0" pos="-20.00" freq="900.00" file="out.xml"/>
    <inductionLoop id="e1Detector_1162_0" name="1162_0" lane="1162_0" pos="-20.00" freq="900.00" file="out.xml"/>
    <inductionLoop id="e1Detector_11_0" name="11_0" lane="11_0" pos="-20.00" freq="900.00" file="out.xml"/>
    <inductionLoop id="e1Detector_1275_0" name="1275_0" lane="1275_0" pos="-20.00" freq="900.00" file="out.xml"/>
    <inductionLoop id="e1Detector_1276_0" name="1276_0" lane="1276_0" pos="-20.00" freq="900.00" file="out.xml"/>
    <inductionLoop id="e1Detector_1278_0" name="1278_0" lane="1278_0" pos="-20.00" freq="900.00" file="out.xml"/>
    <inductionLoop id="e1Detector_1286_0" name="1286_0" lane="1286_0" pos="-20.00" freq="900.00" file="out.xml"/>
    <inductionLoop id="e1Detector_1354_0" name="1354_0" lane="1354_0" pos="-20.00" freq="900.00" file="out.xml"/>
    <inductionLoop id="e1Detector_1356_0" name="1356_0" lane="1356_0" pos="-20.00" freq="900.00" file="out.xml"/>
    <inductionLoop id="e1Detector_1356_1" name="1356_1" lane="1356_1" pos="496.66" freq="900.00" file="out.xml"/>
    <inductionLoop id="e1Detector_1358_0" name="1358_0" lane="1358_0" pos="-20.00" freq="900.00" file="out.xml"/>
    <inductionLoop id="e1Detector_1358_1" name="1358_1" lane="1358_1" pos="-20.00" freq="900.00" file="out.xml"/>
    <inductionLoop id="e1Detector_1376_0" name="1376_0" lane="1376_0" pos="-20.00" freq="900.00" file="out.xml"/>
    <inductionLoop id="e1Detector_1376_1" name="1376_1" lane="1376_1" pos="-20.00" freq="900.00" file="out.xml"/>
    <inductionLoop id="e1Detector_1378_0" name="1378_0" lane="1378.183_0" pos="-20.00" freq="900.00" file="out.xml"/>
    <inductionLoop id="e1Detector_1378_1" name="1378_1" lane="1378.183_1" pos="-20.00" freq="900.00" file="out.xml"/>
    <inductionLoop id="e1Detector_1378_2" name="1378_2" lane="1378.183_2" pos="-20.00" freq="900.00" file="out.xml"/>
    <inductionLoop id="e1Detector_1380_0" name="1380_0" lane="1380_0" pos="-20.00" freq="900.00" file="out.xml"/>
    <inductionLoop id="e1Detector_1382_0" name="1382_0" lane="1382_0" pos="-20.00" freq="900.00" file="out.xml"/>
    <inductionLoop id="e1Detector_1392_0" name="1392_0" lane="1392_0" pos="-20.00" freq="900.00" file="out.xml"/>
    <inductionLoop id="e1Detector_1396_0" name="1396_0" lane="1396_0" pos="-20.00" freq="900.00" file="out.xml"/>
    <inductionLoop id="e1Detector_1400_0" name="1400_0" lane="1400_0" pos="-20.00" freq="900.00" file="out.xml"/>
    <inductionLoop id="e1Detector_1432_0" name="1432_0" lane="1432.687_0" pos="-17.50" freq="900.00" file="out.xml"/>