<?xml version="1.0" encoding="UTF-8"?>

<!-- generated on 2023-01-12 09:43:09 by Eclipse SUMO netedit Version v1_15_0+1033-5ab1db048c1
<configuration xmlns:xsi="http://www.w3.org/2001/XMLSchema-instance" xsi:noNamespaceSchemaLocation="http://sumo.dlr.de/xsd/netconvertConfiguration.xsd">

    <input>
        <sumo-net-file value="./network.net.xml"/>
    </input>

    <output>
        <output-file value="./network.net.xml"/>
    </output>

    <processing>
        <geometry.min-radius.fix.railways value="false"/>
        <geometry.max-grade.fix value="false"/>
        <offset.disable-normalization value="true"/>
        <lefthand value="0"/>
    </processing>

    <junctions>
        <no-turnarounds value="true"/>
        <junctions.corner-detail value="5"/>
        <junctions.limit-turn-speed value="5.50"/>
        <rectangular-lane-cut value="0"/>
    </junctions>

    <pedestrian>
        <walkingareas value="0"/>
    </pedestrian>

</configuration>
-->

<net version="1.9" junctionCornerDetail="5" limitTurnSpeed="5.50" xmlns:xsi="http://www.w3.org/2001/XMLSchema-instance" xsi:noNamespaceSchemaLocation="http://sumo.dlr.de/xsd/net_file.xsd">

    <location netOffset="8929.57,6716.75" convBoundary="0.00,0.00,11445.83,8196.36" origBoundary="-8929.57,-6716.75,2516.26,1479.61" projParameter="!"/>

    <edge id=":1_0" function="internal">
        <lane id=":1_0_0" index="0" speed="5.98" length="9.08" shape="8928.10,6725.05 8927.69,6722.48 8926.56,6720.90 8924.71,6720.32 8922.14,6720.73"/>
    </edge>
    <edge id=":1_1" function="internal">
        <lane id=":1_1_0" index="0" speed="13.89" length="14.86" shape="8928.10,6725.05 8927.96,6721.32 8927.65,6717.63 8927.13,6713.97 8926.38,6710.32"/>
    </edge>
    <edge id=":1_2" function="internal">
        <lane id=":1_2_0" index="0" speed="8.09" length="4.36" shape="8928.10,6725.05 8928.60,6720.71"/>
    </edge>
    <edge id=":1_3" function="internal">
        <lane id=":1_3_0" index="0" speed="3.65" length="1.44" shape="8928.10,6725.05 8928.88,6723.83"/>
    </edge>
    <edge id=":1_16" function="internal">
        <lane id=":1_16_0" index="0" speed="8.09" length="10.76" shape="8928.60,6720.71 8930.25,6717.66 8933.05,6715.90 8937.00,6715.43"/>
    </edge>
    <edge id=":1_17" function="internal">
        <lane id=":1_17_0" index="0" speed="3.65" length="3.23" shape="8928.88,6723.83 8929.67,6723.42 8930.48,6723.81 8931.30,6725.00"/>
    </edge>
    <edge id=":1_4" function="internal">
        <lane id=":1_4_0" index="0" speed="6.62" length="9.76" shape="8936.88,6718.63 8934.40,6718.95 8932.64,6720.11 8931.61,6722.13 8931.30,6725.00"/>
    </edge>
    <edge id=":1_5" function="internal">
        <lane id=":1_5_0" index="0" speed="13.89" length="14.95" shape="8936.88,6718.63 8933.14,6718.67 8929.43,6719.05 8925.76,6719.75 8922.14,6720.73"/>
    </edge>
    <edge id=":1_6" function="internal">
        <lane id=":1_6_0" index="0" speed="9.03" length="14.51" shape="8936.88,6718.63 8933.01,6717.99 8929.96,6716.39 8927.76,6713.83 8926.38,6710.32"/>
    </edge>
    <edge id=":1_7" function="internal">
        <lane id=":1_7_0" index="0" speed="3.65" length="4.67" shape="8936.88,6718.63 8935.71,6717.78 8935.34,6716.97 8935.77,6716.18 8937.00,6715.43"/>
    </edge>
    <edge id=":1_8" function="internal">
        <lane id=":1_8_0" index="0" speed="7.70" length="10.32" shape="8929.49,6709.57 8930.47,6712.05 8932.04,6713.85 8934.22,6714.98 8937.00,6715.43"/>
    </edge>
    <edge id=":1_9" function="internal">
        <lane id=":1_9_0" index="0" speed="13.89" length="15.56" shape="8929.49,6709.57 8930.26,6713.33 8930.80,6717.23 8931.15,6721.16 8931.30,6725.00"/>
    </edge>
    <edge id=":1_10" function="internal">
        <lane id=":1_10_0" index="0" speed="8.41" length="4.08" shape="8929.49,6709.57 8929.78,6713.37 8929.68,6713.63"/>
    </edge>
    <edge id=":1_11" function="internal">
        <lane id=":1_11_0" index="0" speed="3.65" length="1.44" shape="8929.49,6709.57 8928.99,6710.93"/>
    </edge>
    <edge id=":1_18" function="internal">
        <lane id=":1_18_0" index="0" speed="8.41" length="10.92" shape="8929.68,6713.63 8928.65,6716.49 8926.10,6718.95 8922.14,6720.73"/>
    </edge>
    <edge id=":1_19" function="internal">
        <lane id=":1_19_0" index="0" speed="3.65" length="3.23" shape="8928.99,6710.93 8928.31,6711.50 8927.44,6711.30 8926.38,6710.32"/>
    </edge>
    <edge id=":1_12" function="internal">
        <lane id=":1_12_0" index="0" speed="7.00" length="10.09" shape="8921.19,6717.67 8923.94,6716.46 8925.73,6714.83 8926.54,6712.78 8926.38,6710.32"/>
    </edge>
    <edge id=":1_13" function="internal">
        <lane id=":1_13_0" index="0" speed="13.89" length="16.03" shape="8921.19,6717.67 8924.98,6716.67 8929.02,6715.93 8933.10,6715.49 8937.00,6715.43"/>
    </edge>
    <edge id=":1_14" function="internal">
        <lane id=":1_14_0" index="0" speed="7.59" length="15.41" shape="8921.19,6717.67 8925.55,6716.97 8928.69,6717.96 8930.61,6720.64 8931.30,6725.00"/>
    </edge>
    <edge id=":1_15" function="internal">
        <lane id=":1_15_0" index="0" speed="3.65" length="4.67" shape="8921.19,6717.67 8922.58,6718.08 8923.20,6718.73 8923.05,6719.61 8922.14,6720.73"/>
    </edge>
    <edge id=":10_0" function="internal">
        <lane id=":10_0_0" index="0" speed="6.09" length="7.38" shape="8474.76,6859.56 8472.78,6859.88 8471.13,6859.51 8469.83,6858.45 8468.85,6856.70"/>
    </edge>
    <edge id=":10_1" function="internal">
        <lane id=":10_1_0" index="0" speed="3.91" length="2.46" shape="8471.84,6855.55 8472.16,6856.13 8472.60,6856.49 8473.15,6856.61 8473.81,6856.50"/>
    </edge>
    <edge id=":1101_0" function="internal">
        <lane id=":1101_0_0" index="0" speed="6.07" length="8.38" shape="4940.90,4808.42 4938.88,4809.57 4937.03,4809.74 4935.36,4808.93 4933.87,4807.14"/>
    </edge>
    <edge id=":1101_1" function="internal">
        <lane id=":1101_1_0" index="0" speed="3.90" length="2.79" shape="4936.59,4805.47 4937.09,4806.06 4937.65,4806.33 4938.26,4806.28 4938.94,4805.89"/>
    </edge>
    <edge id=":1111_0" function="internal">
        <lane id=":1111_0_0" index="0" speed="6.51" length="9.26" shape="4805.56,3192.09 4803.11,3191.67 4801.11,3192.18 4799.58,3193.63 4798.51,3196.00"/>
    </edge>
    <edge id=":1111_1" function="internal">
        <lane id=":1111_1_0" index="0" speed="13.89" length="14.63" shape="4805.56,3192.09 4802.04,3191.00 4798.54,3190.05 4795.01,3189.23 4791.39,3188.52"/>
    </edge>
    <edge id=":1111_2" function="internal">
        <lane id=":1111_2_0" index="0" speed="7.94" length="14.32" shape="4805.56,3192.09 4802.04,3190.34 4799.96,3187.88 4799.33,3184.73 4800.15,3180.87"/>
    </edge>
    <edge id=":1111_3" function="internal">
        <lane id=":1111_3_0" index="0" speed="3.65" length="4.67" shape="4805.56,3192.09 4804.68,3190.96 4804.55,3190.07 4805.18,3189.44 4806.57,3189.06"/>
    </edge>
    <edge id=":1111_4" function="internal">
        <lane id=":1111_4_0" index="0" speed="6.44" length="9.03" shape="4803.15,3181.97 4802.63,3184.41 4803.03,3186.40 4804.34,3187.95 4806.57,3189.06"/>
    </edge>
    <edge id=":1111_5" function="internal">
        <lane id=":1111_5_0" index="0" speed="13.89" length="14.78" shape="4803.15,3181.97 4798.51,3196.00"/>
    </edge>
    <edge id=":1111_6" function="internal">
        <lane id=":1111_6_0" index="0" speed="8.74" length="3.92" shape="4803.15,3181.97 4801.30,3185.43"/>
    </edge>
    <edge id=":1111_7" function="internal">
        <lane id=":1111_7_0" index="0" speed="3.65" length="1.44" shape="4803.15,3181.97 4801.99,3182.82"/>
    </edge>
    <edge id=":1111_16" function="internal">
        <lane id=":1111_16_0" index="0" speed="8.74" length="10.91" shape="4801.30,3185.43 4798.72,3187.67 4795.42,3188.70 4791.39,3188.52"/>
    </edge>
    <edge id=":1111_17" function="internal">
        <lane id=":1111_17_0" index="0" speed="3.65" length="3.23" shape="4801.99,3182.82 4801.10,3182.92 4800.49,3182.27 4800.15,3180.87"/>
    </edge>
    <edge id=":1111_8" function="internal">
        <lane id=":1111_8_0" index="0" speed="7.37" length="10.30" shape="4791.95,3185.37 4794.77,3185.50 4797.07,3184.79 4798.87,3183.25 4800.15,3180.87"/>
    </edge>
    <edge id=":1111_9" function="internal">
        <lane id=":1111_9_0" index="0" speed="13.89" length="15.09" shape="4791.95,3185.37 4795.65,3186.10 4799.33,3186.95 4802.97,3187.94 4806.57,3189.06"/>
    </edge>
    <edge id=":1111_10" function="internal">
        <lane id=":1111_10_0" index="0" speed="7.81" length="14.63" shape="4791.95,3185.37 4795.82,3186.65 4798.20,3188.85 4799.10,3191.97 4798.51,3196.00"/>
    </edge>
    <edge id=":1111_11" function="internal">
        <lane id=":1111_11_0" index="0" speed="3.65" length="4.67" shape="4791.95,3185.37 4792.99,3186.37 4793.25,3187.23 4792.71,3187.94 4791.39,3188.52"/>
    </edge>
    <edge id=":1111_12" function="internal">
        <lane id=":1111_12_0" index="0" speed="6.28" length="9.04" shape="4795.44,3195.09 4795.80,3192.60 4795.25,3190.67 4793.78,3189.31 4791.39,3188.52"/>
    </edge>
    <edge id=":1111_13" function="internal">
        <lane id=":1111_13_0" index="0" speed="13.89" length="14.98" shape="4795.44,3195.09 4800.15,3180.87"/>
    </edge>
    <edge id=":1111_14" function="internal">
        <lane id=":1111_14_0" index="0" speed="8.01" length="4.48" shape="4795.44,3195.09 4797.12,3191.39 4797.43,3191.11"/>
    </edge>
    <edge id=":1111_15" function="internal">
        <lane id=":1111_15_0" index="0" speed="3.65" length="1.44" shape="4795.44,3195.09 4796.55,3194.17"/>
    </edge>
    <edge id=":1111_18" function="internal">
        <lane id=":1111_18_0" index="0" speed="8.01" length="10.06" shape="4797.43,3191.11 4799.53,3189.16 4802.68,3188.38 4806.57,3189.06"/>
    </edge>
    <edge id=":1111_19" function="internal">
        <lane id=":1111_19_0" index="0" speed="3.65" length="3.23" shape="4796.55,3194.17 4797.43,3194.01 4798.08,3194.62 4798.51,3196.00"/>
    </edge>
    <edge id=":1125_0" function="internal">
        <lane id=":1125_0_0" index="0" speed="6.07" length="7.95" shape="5442.55,3397.65 5441.65,3399.65 5440.33,3400.85 5438.59,3401.26 5436.43,3400.87"/>
    </edge>
    <edge id=":1125_1" function="internal">
        <lane id=":1125_1_0" index="0" speed="3.90" length="2.65" shape="5437.44,3397.84 5438.16,3397.97 5438.74,3397.83 5439.18,3397.43 5439.48,3396.76"/>
    </edge>
    <edge id=":1127_0" function="internal">
        <lane id=":1127_0_0" index="0" speed="3.90" length="2.78" shape="5063.38,2479.19 5062.65,2478.95 5062.03,2479.02 5061.54,2479.39 5061.17,2480.07"/>
    </edge>
    <edge id=":1127_1" function="internal">
        <lane id=":1127_1_0" index="0" speed="6.07" length="8.35" shape="5058.17,2478.97 5059.28,2476.92 5060.75,2475.80 5062.59,2475.60 5064.80,2476.32"/>
    </edge>
    <edge id=":1161_0" function="internal">
        <lane id=":1161_0_0" index="0" speed="13.89" length="0.16" shape="4192.45,3081.22 4192.29,3081.20"/>
    </edge>
    <edge id=":1161_1" function="internal">
        <lane id=":1161_1_0" index="0" speed="13.89" length="0.29" shape="4192.73,3078.03 4193.01,3078.07"/>
    </edge>
    <edge id=":1274_0" function="internal">
        <lane id=":1274_0_0" index="0" speed="8.13" length="10.82" shape="5634.78,2756.63 5631.73,2757.14 5629.33,2758.28 5627.59,2760.02 5626.49,2762.38"/>
    </edge>
    <edge id=":1274_1" function="internal">
        <lane id=":1274_1_0" index="0" speed="13.89" length="16.77" shape="5634.78,2756.63 5630.76,2756.54 5626.46,2755.86 5622.24,2754.72 5618.51,2753.21"/>
    </edge>
    <edge id=":1274_2" function="internal">
        <lane id=":1274_2_0" index="0" speed="7.80" length="15.43" shape="5634.78,2756.63 5630.57,2756.25 5627.76,2754.51 5626.35,2751.39 5626.33,2746.92"/>
    </edge>
    <edge id=":1274_3" function="internal">
        <lane id=":1274_3_0" index="0" speed="3.65" length="4.67" shape="5634.78,2756.63 5633.53,2755.90 5633.09,2755.13 5633.44,2754.31 5634.58,2753.43"/>
    </edge>
    <edge id=":1274_4" function="internal">
        <lane id=":1274_4_0" index="0" speed="6.26" length="9.50" shape="5629.50,2747.34 5629.50,2750.14 5630.35,2752.09 5632.04,2753.19 5634.58,2753.43"/>
    </edge>
    <edge id=":1274_5" function="internal">
        <lane id=":1274_5_0" index="0" speed="13.89" length="15.36" shape="5629.50,2747.34 5628.95,2751.10 5628.27,2754.92 5627.45,2758.70 5626.49,2762.38"/>
    </edge>
    <edge id=":1274_6" function="internal">
        <lane id=":1274_6_0" index="0" speed="7.54" length="4.51" shape="5629.50,2747.34 5628.29,2751.68"/>
    </edge>
    <edge id=":1274_7" function="internal">
        <lane id=":1274_7_0" index="0" speed="3.65" length="1.44" shape="5629.50,2747.34 5628.55,2748.42"/>
    </edge>
    <edge id=":1274_16" function="internal">
        <lane id=":1274_16_0" index="0" speed="7.54" length="11.11" shape="5628.29,2751.68 5626.06,2754.11 5622.80,2754.62 5618.51,2753.21"/>
    </edge>
    <edge id=":1274_17" function="internal">
        <lane id=":1274_17_0" index="0" speed="3.65" length="3.23" shape="5628.55,2748.42 5627.71,2748.71 5626.97,2748.21 5626.33,2746.92"/>
    </edge>
    <edge id=":1274_8" function="internal">
        <lane id=":1274_8_0" index="0" speed="5.92" length="9.10" shape="5619.93,2750.34 5622.42,2751.16 5624.32,2750.86 5625.63,2749.45 5626.33,2746.92"/>
    </edge>
    <edge id=":1274_9" function="internal">
        <lane id=":1274_9_0" index="0" speed="13.89" length="15.13" shape="5619.93,2750.34 5623.41,2751.80 5627.07,2752.83 5630.82,2753.39 5634.58,2753.43"/>
    </edge>
    <edge id=":1274_10" function="internal">
        <lane id=":1274_10_0" index="0" speed="8.81" length="15.07" shape="5619.93,2750.34 5623.63,2752.72 5625.96,2755.52 5626.92,2758.74 5626.49,2762.38"/>
    </edge>
    <edge id=":1274_11" function="internal">
        <lane id=":1274_11_0" index="0" speed="3.65" length="4.67" shape="5619.93,2750.34 5620.65,2751.59 5620.65,2752.48 5619.94,2753.02 5618.51,2753.21"/>
    </edge>
    <edge id=":1274_12" function="internal">
        <lane id=":1274_12_0" index="0" speed="7.46" length="10.56" shape="5623.42,2761.49 5623.67,2759.05 5622.93,2756.86 5621.21,2754.91 5618.51,2753.21"/>
    </edge>
    <edge id=":1274_13" function="internal">
        <lane id=":1274_13_0" index="0" speed="13.89" length="14.88" shape="5623.42,2761.49 5624.37,2757.88 5625.15,2754.26 5625.80,2750.61 5626.33,2746.92"/>
    </edge>
    <edge id=":1274_14" function="internal">
        <lane id=":1274_14_0" index="0" speed="9.41" length="3.64" shape="5623.42,2761.49 5624.93,2758.18"/>
    </edge>
    <edge id=":1274_15" function="internal">
        <lane id=":1274_15_0" index="0" speed="3.65" length="1.44" shape="5623.42,2761.49 5624.52,2760.56"/>
    </edge>
    <edge id=":1274_18" function="internal">
        <lane id=":1274_18_0" index="0" speed="9.41" length="11.12" shape="5624.93,2758.18 5627.29,2755.73 5630.51,2754.15 5634.58,2753.43"/>
    </edge>
    <edge id=":1274_19" function="internal">
        <lane id=":1274_19_0" index="0" speed="3.65" length="3.23" shape="5624.52,2760.56 5625.40,2760.40 5626.05,2761.01 5626.49,2762.38"/>
    </edge>
    <edge id=":1277_0" function="internal">
        <lane id=":1277_0_0" index="0" speed="6.53" length="8.28" shape="4000.89,3054.56 3998.65,3054.56 3996.88,3055.25 3995.56,3056.63 3994.70,3058.69"/>
    </edge>
    <edge id=":1277_1" function="internal">
        <lane id=":1277_1_0" index="0" speed="9.57" length="15.04" shape="4000.89,3054.56 3996.15,3053.53 3992.58,3051.93 3990.16,3049.76 3988.90,3047.01"/>
    </edge>
    <edge id=":1277_2" function="internal">
        <lane id=":1277_2_0" index="0" speed="7.55" length="9.07" shape="3995.14,3045.61 3995.96,3047.88 3997.26,3049.59 3999.05,3050.77 4001.33,3051.39"/>
    </edge>
    <edge id=":1277_3" function="internal">
        <lane id=":1277_3_0" index="0" speed="13.89" length="12.54" shape="3995.14,3045.61 3995.91,3049.46 3996.08,3052.17 3995.67,3054.87 3994.70,3058.69"/>
        <lane id=":1277_3_1" index="1" speed="13.89" length="12.54" shape="3992.02,3046.31 3992.70,3049.71 3992.84,3052.11 3992.47,3054.50 3991.60,3057.88"/>
    </edge>
    <edge id=":1277_5" function="internal">
        <lane id=":1277_5_0" index="0" speed="13.89" length="9.47" shape="3985.41,3056.26 3986.06,3053.76 3986.35,3052.00 3986.27,3050.23 3985.78,3047.72"/>
        <lane id=":1277_5_1" index="1" speed="13.89" length="9.47" shape="3988.51,3057.07 3989.26,3054.13 3989.59,3052.06 3989.48,3049.97 3988.90,3047.01"/>
    </edge>
    <edge id=":1277_7" function="internal">
        <lane id=":1277_7_0" index="0" speed="8.71" length="3.28" shape="3988.51,3057.07 3989.96,3054.12"/>
    </edge>
    <edge id=":1277_8" function="internal">
        <lane id=":1277_8_0" index="0" speed="8.71" length="12.19" shape="3989.96,3054.12 3990.02,3054.01 3992.66,3052.05 3996.43,3051.18 4001.33,3051.39"/>
    </edge>
    <edge id=":1285_0" function="internal">
        <lane id=":1285_0_0" index="0" speed="10.61" length="1.67" shape="6099.99,2727.40 6099.53,2727.59 6099.21,2727.69 6098.87,2727.75 6098.38,2727.78"/>
    </edge>
    <edge id=":1285_1" function="internal">
        <lane id=":1285_1_0" index="0" speed="13.89" length="0.56" shape="6098.18,2724.59 6098.35,2724.58 6098.46,2724.56 6098.57,2724.52 6098.72,2724.46"/>
    </edge>
    <edge id=":1353_0" function="internal">
        <lane id=":1353_0_0" index="0" speed="3.99" length="1.81" shape="5663.25,2498.82 5662.82,2499.02 5662.49,2499.31 5662.27,2499.68 5662.15,2500.14"/>
    </edge>
    <edge id=":1353_1" function="internal">
        <lane id=":1353_1_0" index="0" speed="6.24" length="5.44" shape="5658.98,2499.72 5659.33,2498.34 5660.00,2497.23 5660.98,2496.37 5662.27,2495.78"/>
    </edge>
    <edge id=":1355_0" function="internal">
        <lane id=":1355_0_0" index="0" speed="5.69" length="9.22" shape="3872.49,2544.04 3871.53,2541.46 3870.13,2540.25 3868.28,2540.41 3865.99,2541.94"/>
    </edge>
    <edge id=":1355_1" function="internal">
        <lane id=":1355_1_0" index="0" speed="13.89" length="16.92" shape="3872.49,2544.04 3871.47,2539.48 3870.42,2536.33 3868.56,2533.71 3865.10,2530.69"/>
        <lane id=":1355_1_1" index="1" speed="13.89" length="16.92" shape="3875.61,2543.34 3874.43,2538.14 3873.20,2534.57 3871.03,2531.60 3867.07,2528.16"/>
    </edge>
    <edge id=":1355_3" function="internal">
        <lane id=":1355_3_0" index="0" speed="11.76" length="5.79" shape="3875.61,2543.34 3874.97,2537.73 3874.99,2537.59"/>
    </edge>
    <edge id=":1355_14" function="internal">
        <lane id=":1355_14_0" index="0" speed="11.76" length="14.87" shape="3874.99,2537.59 3875.71,2532.74 3877.83,2528.39 3881.34,2524.66"/>
    </edge>
    <edge id=":1355_4" function="internal">
        <lane id=":1355_4_0" index="0" speed="10.25" length="15.51" shape="3883.36,2527.14 3881.73,2529.31 3880.94,2532.50 3880.98,2536.71 3881.85,2541.94"/>
    </edge>
    <edge id=":1355_5" function="internal">
        <lane id=":1355_5_0" index="0" speed="13.89" length="22.82" shape="3883.36,2527.14 3865.99,2541.94"/>
    </edge>
    <edge id=":1355_6" function="internal">
        <lane id=":1355_6_0" index="0" speed="9.74" length="5.03" shape="3883.36,2527.14 3879.11,2529.83"/>
    </edge>
    <edge id=":1355_15" function="internal">
        <lane id=":1355_15_0" index="0" speed="9.74" length="12.78" shape="3879.11,2529.83 3874.98,2530.90 3870.96,2530.34 3867.07,2528.16"/>
    </edge>
    <edge id=":1355_7" function="internal">
        <lane id=":1355_7_0" index="0" speed="7.87" length="11.34" shape="3871.00,2523.12 3873.99,2525.04 3876.71,2525.94 3879.16,2525.81 3881.34,2524.66"/>
    </edge>
    <edge id=":1355_8" function="internal">
        <lane id=":1355_8_0" index="0" speed="13.89" length="21.33" shape="3871.00,2523.12 3875.72,2527.28 3878.56,2531.17 3880.34,2535.75 3881.85,2541.94"/>
        <lane id=":1355_8_1" index="1" speed="13.89" length="21.33" shape="3869.04,2525.64 3873.50,2529.49 3875.97,2532.82 3877.40,2536.80 3878.73,2542.64"/>
    </edge>
    <edge id=":1355_10" function="internal">
        <lane id=":1355_10_0" index="0" speed="8.74" length="4.28" shape="3869.04,2525.64 3871.80,2528.91"/>
    </edge>
    <edge id=":1355_16" function="internal">
        <lane id=":1355_16_0" index="0" speed="8.74" length="15.26" shape="3871.80,2528.91 3871.92,2529.05 3872.37,2532.91 3870.39,2537.20 3865.99,2541.94"/>
    </edge>
    <edge id=":1355_11" function="internal">
        <lane id=":1355_11_0" index="0" speed="6.59" length="10.60" shape="3863.87,2539.54 3866.16,2537.03 3867.13,2534.72 3866.78,2532.61 3865.10,2530.69"/>
    </edge>
    <edge id=":1355_12" function="internal">
        <lane id=":1355_12_0" index="0" speed="13.89" length="22.95" shape="3863.87,2539.54 3881.34,2524.66"/>
    </edge>
    <edge id=":1355_13" function="internal">
        <lane id=":1355_13_0" index="0" speed="8.15" length="6.52" shape="3863.87,2539.54 3869.23,2535.82"/>
    </edge>
    <edge id=":1355_17" function="internal">
        <lane id=":1355_17_0" index="0" speed="8.15" length="13.88" shape="3869.23,2535.82 3873.49,2535.10 3876.66,2537.37 3878.73,2542.64"/>
    </edge>
    <edge id=":1357_0" function="internal">
        <lane id=":1357_0_0" index="0" speed="13.89" length="0.38" shape="3942.86,3256.67 3942.74,3257.09"/>
        <lane id=":1357_0_1" index="1" speed="13.89" length="0.38" shape="3939.77,3255.86 3939.68,3256.16"/>
    </edge>
    <edge id=":1357_2" function="internal">
        <lane id=":1357_2_0" index="0" speed="13.89" length="0.11" shape="3933.56,3254.28 3933.58,3254.24"/>
        <lane id=":1357_2_1" index="1" speed="13.89" length="0.11" shape="3936.62,3255.22 3936.67,3255.05"/>
    </edge>
    <edge id=":1375_0" function="internal">
        <lane id=":1375_0_0" index="0" speed="4.33" length="2.25" shape="3264.13,2062.13 3263.86,2061.94 3263.66,2061.83 3263.43,2061.80 3263.10,2061.80"/>
        <lane id=":1375_0_1" index="1" speed="6.89" length="2.25" shape="3266.10,2059.61 3265.30,2059.02 3264.68,2058.71 3263.99,2058.60 3263.00,2058.60"/>
    </edge>
    <edge id=":1375_2" function="internal">
        <lane id=":1375_2_0" index="0" speed="10.24" length="6.75" shape="3262.81,2052.20 3265.12,2052.19 3266.72,2052.46 3268.17,2053.19 3270.03,2054.56"/>
        <lane id=":1375_2_1" index="1" speed="8.73" length="6.75" shape="3262.90,2055.40 3264.55,2055.39 3265.70,2055.59 3266.74,2056.11 3268.06,2057.09"/>
    </edge>
    <edge id=":1377_0" function="internal">
        <lane id=":1377_0_0" index="0" speed="9.67" length="16.81" shape="3882.51,3483.79 3878.34,3483.22 3874.59,3484.08 3871.25,3486.36 3868.32,3490.05"/>
    </edge>
    <edge id=":1377_1" function="internal">
        <lane id=":1377_1_0" index="0" speed="13.89" length="28.79" shape="3882.51,3483.79 3854.62,3476.64"/>
    </edge>
    <edge id=":1377_2" function="internal">
        <lane id=":1377_2_0" index="0" speed="9.29" length="6.10" shape="3882.51,3483.79 3876.82,3481.60"/>
    </edge>
    <edge id=":1377_14" function="internal">
        <lane id=":1377_14_0" index="0" speed="9.29" length="13.64" shape="3876.82,3481.60 3876.26,3481.39 3872.17,3478.45 3870.24,3474.97 3870.47,3470.95"/>
    </edge>
    <edge id=":1377_3" function="internal">
        <lane id=":1377_3_0" index="0" speed="6.48" length="9.03" shape="3879.65,3473.77 3879.27,3476.22 3879.76,3478.19 3881.14,3479.69 3883.40,3480.71"/>
    </edge>
    <edge id=":1377_4" function="internal">
        <lane id=":1377_4_0" index="0" speed="13.89" length="19.64" shape="3879.65,3473.77 3877.39,3479.13 3874.85,3482.30 3871.88,3485.28 3868.32,3490.05"/>
        <lane id=":1377_4_1" index="1" speed="13.89" length="19.64" shape="3876.59,3472.83 3874.40,3477.96 3871.92,3480.98 3869.03,3483.81 3865.60,3488.37"/>
    </edge>
    <edge id=":1377_6" function="internal">
        <lane id=":1377_6_0" index="0" speed="9.99" length="4.08" shape="3873.53,3471.89 3871.38,3475.35"/>
    </edge>
    <edge id=":1377_15" function="internal">
        <lane id=":1377_15_0" index="0" speed="9.99" length="17.32" shape="3871.38,3475.35 3867.51,3477.30 3861.92,3477.73 3854.62,3476.64"/>
    </edge>
    <edge id=":1377_7" function="internal">
        <lane id=":1377_7_0" index="0" speed="8.14" length="13.88" shape="3855.33,3473.52 3859.94,3474.17 3863.50,3473.81 3865.99,3472.42 3867.41,3470.01"/>
    </edge>
    <edge id=":1377_8" function="internal">
        <lane id=":1377_8_0" index="0" speed="13.89" length="28.98" shape="3855.33,3473.52 3883.40,3480.71"/>
    </edge>
    <edge id=":1377_9" function="internal">
        <lane id=":1377_9_0" index="0" speed="8.91" length="7.66" shape="3855.33,3473.52 3862.37,3475.89 3862.55,3476.04"/>
    </edge>
    <edge id=":1377_16" function="internal">
        <lane id=":1377_16_0" index="0" speed="8.91" length="14.68" shape="3862.55,3476.04 3866.43,3479.16 3867.50,3483.32 3865.60,3488.37"/>
    </edge>
    <edge id=":1377_10" function="internal">
        <lane id=":1377_10_0" index="0" speed="5.91" length="9.10" shape="3857.43,3483.33 3858.48,3480.92 3858.37,3479.00 3857.08,3477.57 3854.62,3476.64"/>
    </edge>
    <edge id=":1377_11" function="internal">
        <lane id=":1377_11_0" index="0" speed="13.89" length="17.24" shape="3857.43,3483.33 3860.49,3479.38 3863.15,3477.00 3865.44,3474.45 3867.41,3470.01"/>
        <lane id=":1377_11_1" index="1" speed="13.89" length="17.24" shape="3860.15,3485.01 3863.34,3480.85 3866.07,3478.32 3868.43,3475.62 3870.47,3470.95"/>
    </edge>
    <edge id=":1377_13" function="internal">
        <lane id=":1377_13_0" index="0" speed="11.27" length="6.07" shape="3862.87,3486.69 3866.50,3482.52 3866.98,3482.27"/>
    </edge>
    <edge id=":1377_17" function="internal">
        <lane id=":1377_17_0" index="0" speed="11.27" length="17.08" shape="3866.98,3482.27 3871.13,3480.13 3876.77,3479.53 3883.40,3480.71"/>
    </edge>
    <edge id=":1379_0" function="internal">
        <lane id=":1379_0_0" index="0" speed="7.39" length="2.71" shape="9422.35,5642.85 9421.80,5642.28 9421.47,5641.83 9421.26,5641.32 9421.06,5640.54"/>
    </edge>
    <edge id=":1379_1" function="internal">
        <lane id=":1379_1_0" index="0" speed="13.89" length="0.90" shape="9424.18,5639.81 9424.24,5640.07 9424.31,5640.24 9424.42,5640.39 9424.61,5640.58"/>
    </edge>
    <edge id=":1381_0" function="internal">
        <lane id=":1381_0_0" index="0" speed="7.97" length="11.52" shape="10810.06,5652.80 10807.78,5650.81 10805.28,5649.83 10802.58,5649.87 10799.66,5650.93"/>
    </edge>
    <edge id=":1381_1" function="internal">
        <lane id=":1381_1_0" index="0" speed="13.89" length="15.97" shape="10810.06,5652.80 10799.57,5640.76"/>
    </edge>
    <edge id=":1381_2" function="internal">
        <lane id=":1381_2_0" index="0" speed="7.69" length="4.23" shape="10810.06,5652.80 10807.77,5649.25"/>
    </edge>
    <edge id=":1381_3" function="internal">
        <lane id=":1381_3_0" index="0" speed="3.65" length="1.44" shape="10810.06,5652.80 10809.88,5651.37"/>
    </edge>
    <edge id=":1381_16" function="internal">
        <lane id=":1381_16_0" index="0" speed="7.69" length="10.76" shape="10807.77,5649.25 10807.36,5646.01 10808.82,5643.09 10812.16,5640.49"/>
    </edge>
    <edge id=":1381_17" function="internal">
        <lane id=":1381_17_0" index="0" speed="3.65" length="3.23" shape="10809.88,5651.37 10810.22,5650.55 10811.09,5650.33 10812.48,5650.71"/>
    </edge>
    <edge id=":1381_4" function="internal">
        <lane id=":1381_4_0" index="0" speed="6.12" length="9.06" shape="10813.74,5643.27 10811.73,5644.84 10810.84,5646.60 10811.09,5648.56 10812.48,5650.71"/>
    </edge>
    <edge id=":1381_5" function="internal">
        <lane id=":1381_5_0" index="0" speed="13.89" length="16.04" shape="10813.74,5643.27 10799.66,5650.93"/>
    </edge>
    <edge id=":1381_6" function="internal">
        <lane id=":1381_6_0" index="0" speed="9.09" length="15.79" shape="10813.74,5643.27 10809.86,5644.82 10806.20,5644.92 10802.77,5643.57 10799.57,5640.76"/>
    </edge>
    <edge id=":1381_7" function="internal">
        <lane id=":1381_7_0" index="0" speed="3.65" length="4.67" shape="10813.74,5643.27 10812.31,5643.17 10811.56,5642.67 10811.51,5641.78 10812.16,5640.49"/>
    </edge>
    <edge id=":1381_8" function="internal">
        <lane id=":1381_8_0" index="0" speed="7.79" length="11.34" shape="10801.98,5638.66 10804.29,5640.68 10806.75,5641.66 10809.38,5641.60 10812.16,5640.49"/>
    </edge>
    <edge id=":1381_9" function="internal">
        <lane id=":1381_9_0" index="0" speed="13.89" length="15.98" shape="10801.98,5638.66 10812.48,5650.71"/>
    </edge>
    <edge id=":1381_10" function="internal">
        <lane id=":1381_10_0" index="0" speed="7.64" length="4.32" shape="10801.98,5638.66 10804.33,5642.28"/>
    </edge>
    <edge id=":1381_11" function="internal">
        <lane id=":1381_11_0" index="0" speed="3.65" length="1.44" shape="10801.98,5638.66 10802.17,5640.09"/>
    </edge>
    <edge id=":1381_18" function="internal">
        <lane id=":1381_18_0" index="0" speed="7.64" length="10.87" shape="10804.33,5642.28 10804.73,5645.53 10803.17,5648.42 10799.66,5650.93"/>
    </edge>
    <edge id=":1381_19" function="internal">
        <lane id=":1381_19_0" index="0" speed="3.65" length="3.23" shape="10802.17,5640.09 10801.83,5640.91 10800.96,5641.14 10799.57,5640.76"/>
    </edge>
    <edge id=":1381_12" function="internal">
        <lane id=":1381_12_0" index="0" speed="6.05" length="9.07" shape="10798.19,5648.09 10800.28,5646.59 10801.21,5644.87 10800.98,5642.92 10799.57,5640.76"/>
    </edge>
    <edge id=":1381_13" function="internal">
        <lane id=":1381_13_0" index="0" speed="13.89" length="15.91" shape="10798.19,5648.09 10812.16,5640.49"/>
    </edge>
    <edge id=":1381_14" function="internal">